# Cyclohexane_Boat
# Created by GaussView 6.1.1
#

#
#

@<TRIPOS>MOLECULE
Molecule Name
18 18
SMALL
NO_CHARGES


@<TRIPOS>ATOM
1 C1    -2.8664    -1.3020     0.0000 C
2 C2    -1.3495    -1.3020     0.0000 C
3 C3    -0.7718     0.1007     0.0000 C
4 C4    -1.6847     1.0813     0.7052 C
5 C5    -3.0234     1.2022     0.0016 C
6 C6    -3.4276    -0.0819    -0.6981 C
7 H7     0.2321     0.0939     0.4986 H
8 H8    -0.9849    -1.8608     0.9015 H
9 H9    -0.9713    -1.8521    -0.9014 H
10 H10    -3.0565    -0.0646    -1.7569 H
11 H11    -3.2403    -1.3220     1.0578 H
12 H12    -1.8457     0.7371     1.7608 H
13 H13    -1.1930     2.0873     0.7540 H
14 H14    -2.9803     2.0305    -0.7533 H
15 H15    -3.8058     1.4853     0.7537 H
16 H16    -4.5456    -0.1518    -0.7382 H
17 H17    -3.2423    -2.2304    -0.5033 H
18 H18    -0.6159     0.4420    -1.0574 H
@<TRIPOS>BOND
1 1 2 1
2 1 6 1
3 1 11 1
4 1 17 1
5 2 3 1
6 2 8 1
7 2 9 1
8 3 4 1
9 3 7 1
10 3 18 1
11 4 5 1
12 4 12 1
13 4 13 1
14 5 6 1
15 5 14 1
16 5 15 1
17 6 10 1
18 6 16 1
